$DATA1 SOURCE='PrimeSim HSPICE' VERSION='U-2023.03-SP2 linux6' PARAM_COUNT=0
.TITLE '* fo4.sp'
 tpdr             tpdf             tpd              trise           
 tfall            temper           alter#          
  9.256e-11        7.960e-11        8.608e-11        8.840e-11      
  6.994e-11         25.0000        1               
