$DATA1 SOURCE='PrimeSim HSPICE' VERSION='U-2023.03-SP2 linux6' PARAM_COUNT=2
.TITLE '* fo4opt.sp'
 index            p1               bestratio        tpdr            
                  tpdf             tpd              diff            
                  temper           alter#          
 1                   1.0000           1.0000         1.272e-10      
                   6.728e-11        9.725e-11        5.993e-11      
                    25.0000        1               
