$DATA1 SOURCE='PrimeSim HSPICE' VERSION='U-2023.03-SP2 linux6' PARAM_COUNT=2
.TITLE '* fo4opt.sp'
 index            p1               bestratio        tpdr            
                  tpdf             tpd              diff            
                  temper           alter#          
 4                   2.1190           2.1190         1.134e-10      
                   7.703e-11        9.523e-11        3.640e-11      
                    25.0000        1               
