$DATA1 SOURCE='PrimeSim HSPICE' VERSION='U-2023.03-SP2 linux6' PARAM_COUNT=0
.TITLE '* fo3.sp'
 tpdr             tpdf             tpd              trise           
 tfall            diff             temper           alter#          
  9.423e-11        6.299e-11        7.861e-11        1.071e-10      
  5.950e-11        3.123e-11         25.0000        1               
