$DATA1 SOURCE='PrimeSim HSPICE' VERSION='U-2023.03-SP2 linux6' PARAM_COUNT=0
.TITLE '* fo3.sp'
 tpdr             tpdf             tpd              trise           
 tfall            diff             temper           alter#          
  9.349e-11        6.296e-11        7.822e-11        9.569e-11      
  5.730e-11        3.053e-11         25.0000        1               
